dss/export/decsa/Transformer.dss
New Transformer.idseta_2 phases=3 wdg=1 bus=263.1.2.3 kv=13.2 kVA=16.0 wdg=2 bus=x_2.1.2.3 kv=0.38 kVA=16.0 %imag=0.5 %loadloss=1.5 %noloadloss=0.25 XHL=2.0 conns=[delta, wye, ] ppm_antifloat=0
New Transformer.idseta_10 phases=3 wdg=1 bus=907.1.2.3 kv=13.2 kVA=200.0 wdg=2 bus=x_10.1.2.3 kv=0.38 kVA=200.0 %imag=0.5 %loadloss=1.5 %noloadloss=0.25 XHL=2.0 conns=[delta, wye, ] ppm_antifloat=0
New Transformer.idseta_79 phases=3 wdg=1 bus=904.1.2.3 kv=13.2 kVA=125.0 wdg=2 bus=x_79.1.2.3 kv=0.38 kVA=125.0 %imag=0.5 %loadloss=1.5 %noloadloss=0.25 XHL=2.0 conns=[delta, wye, ] ppm_antifloat=0
New Transformer.idseta_80 phases=3 wdg=1 bus=946.1.2.3 kv=13.2 kVA=200.0 wdg=2 bus=x_80.1.2.3 kv=0.38 kVA=200.0 %imag=0.5 %loadloss=1.5 %noloadloss=0.25 XHL=2.0 conns=[delta, wye, ] ppm_antifloat=0
New Transformer.idseta_84 phases=3 wdg=1 bus=926.1.2.3 kv=13.2 kVA=100.0 wdg=2 bus=x_84.1.2.3 kv=0.38 kVA=100.0 %imag=0.5 %loadloss=1.5 %noloadloss=0.25 XHL=2.0 conns=[delta, wye, ] ppm_antifloat=0
New Transformer.idseta_85 phases=3 wdg=1 bus=1808.1.2.3 kv=13.2 kVA=250.0 wdg=2 bus=x_85.1.2.3 kv=0.38 kVA=250.0 %imag=0.5 %loadloss=1.5 %noloadloss=0.25 XHL=2.0 conns=[delta, wye, ] ppm_antifloat=0
New Transformer.idseta_86 phases=3 wdg=1 bus=969.1.2.3 kv=13.2 kVA=160.0 wdg=2 bus=x_86.1.2.3 kv=0.38 kVA=160.0 %imag=0.5 %loadloss=1.5 %noloadloss=0.25 XHL=2.0 conns=[delta, wye, ] ppm_antifloat=0
New Transformer.idseta_87 phases=3 wdg=1 bus=1636.1.2.3 kv=13.2 kVA=160.0 wdg=2 bus=x_87.1.2.3 kv=0.38 kVA=160.0 %imag=0.5 %loadloss=1.5 %noloadloss=0.25 XHL=2.0 conns=[delta, wye, ] ppm_antifloat=0
New Transformer.idseta_200 phases=3 wdg=1 bus=972.1.2.3 kv=13.2 kVA=200.0 wdg=2 bus=x_200.1.2.3 kv=0.38 kVA=200.0 %imag=0.5 %loadloss=1.5 %noloadloss=0.25 XHL=2.0 conns=[delta, wye, ] ppm_antifloat=0
New Transformer.idseta_278 phases=3 wdg=1 bus=1416.1.2.3 kv=13.2 kVA=63.0 wdg=2 bus=x_278.1.2.3 kv=0.38 kVA=63.0 %imag=0.5 %loadloss=1.5 %noloadloss=0.25 XHL=2.0 conns=[delta, wye, ] ppm_antifloat=0
New Transformer.idseta_337 phases=3 wdg=1 bus=360.1.2.3 kv=13.2 kVA=100.0 wdg=2 bus=x_337.1.2.3 kv=0.38 kVA=100.0 %imag=0.5 %loadloss=1.5 %noloadloss=0.25 XHL=2.0 conns=[delta, wye, ] ppm_antifloat=0
New Transformer.idseta_531 phases=3 wdg=1 bus=1687.1.2.3 kv=13.2 kVA=5.0 wdg=2 bus=x_531.1.2.3 kv=0.38 kVA=5.0 %imag=0.5 %loadloss=1.5 %noloadloss=0.25 XHL=2.0 conns=[delta, wye, ] ppm_antifloat=0
New Transformer.idseta_540 phases=3 wdg=1 bus=26.1.2.3 kv=13.2 kVA=10.0 wdg=2 bus=x_540.1.2.3 kv=0.38 kVA=10.0 %imag=0.5 %loadloss=1.5 %noloadloss=0.25 XHL=2.0 conns=[delta, wye, ] ppm_antifloat=0
New Transformer.idseta_541 phases=3 wdg=1 bus=24.1.2.3 kv=13.2 kVA=25.0 wdg=2 bus=x_541.1.2.3 kv=0.38 kVA=25.0 %imag=0.5 %loadloss=1.5 %noloadloss=0.25 XHL=2.0 conns=[delta, wye, ] ppm_antifloat=0
New Transformer.idseta_551 phases=3 wdg=1 bus=641.1.2.3 kv=13.2 kVA=25.0 wdg=2 bus=x_551.1.2.3 kv=0.38 kVA=25.0 %imag=0.5 %loadloss=1.5 %noloadloss=0.25 XHL=2.0 conns=[delta, wye, ] ppm_antifloat=0
New Transformer.idseta_594 phases=3 wdg=1 bus=7.1.2.3 kv=13.2 kVA=200.0 wdg=2 bus=x_594.1.2.3 kv=0.38 kVA=200.0 %imag=0.5 %loadloss=1.5 %noloadloss=0.25 XHL=2.0 conns=[delta, wye, ] ppm_antifloat=0
New Transformer.idseta_637 phases=3 wdg=1 bus=736.1.2.3 kv=13.2 kVA=80.0 wdg=2 bus=x_637.1.2.3 kv=0.38 kVA=80.0 %imag=0.5 %loadloss=1.5 %noloadloss=0.25 XHL=2.0 conns=[delta, wye, ] ppm_antifloat=0
New Transformer.idseta_644 phases=3 wdg=1 bus=297.1.2.3 kv=13.2 kVA=75.0 wdg=2 bus=x_644.1.2.3 kv=0.38 kVA=75.0 %imag=0.5 %loadloss=1.5 %noloadloss=0.25 XHL=2.0 conns=[delta, wye, ] ppm_antifloat=0
New Transformer.idseta_656 phases=3 wdg=1 bus=1716.1.2.3 kv=13.2 kVA=80.0 wdg=2 bus=x_656.1.2.3 kv=0.38 kVA=80.0 %imag=0.5 %loadloss=1.5 %noloadloss=0.25 XHL=2.0 conns=[delta, wye, ] ppm_antifloat=0
New Transformer.idseta_659 phases=3 wdg=1 bus=776.1.2.3 kv=13.2 kVA=16.0 wdg=2 bus=x_659.1.2.3 kv=0.38 kVA=16.0 %imag=0.5 %loadloss=1.5 %noloadloss=0.25 XHL=2.0 conns=[delta, wye, ] ppm_antifloat=0
New Transformer.idseta_781 phases=3 wdg=1 bus=737.1.2.3 kv=13.2 kVA=80.0 wdg=2 bus=x_781.1.2.3 kv=0.38 kVA=80.0 %imag=0.5 %loadloss=1.5 %noloadloss=0.25 XHL=2.0 conns=[delta, wye, ] ppm_antifloat=0
New Transformer.idseta_784 phases=3 wdg=1 bus=383.1.2.3 kv=13.2 kVA=160.0 wdg=2 bus=x_784.1.2.3 kv=0.38 kVA=160.0 %imag=0.5 %loadloss=1.5 %noloadloss=0.25 XHL=2.0 conns=[delta, wye, ] ppm_antifloat=0
New Transformer.idseta_805 phases=3 wdg=1 bus=730.1.2.3 kv=13.2 kVA=40.0 wdg=2 bus=x_805.1.2.3 kv=0.38 kVA=40.0 %imag=0.5 %loadloss=1.5 %noloadloss=0.25 XHL=2.0 conns=[delta, wye, ] ppm_antifloat=0
New Transformer.idseta_821 phases=3 wdg=1 bus=379.1.2.3 kv=13.2 kVA=40.0 wdg=2 bus=x_821.1.2.3 kv=0.38 kVA=40.0 %imag=0.5 %loadloss=1.5 %noloadloss=0.25 XHL=2.0 conns=[delta, wye, ] ppm_antifloat=0
New Transformer.idseta_828 phases=3 wdg=1 bus=1438.1.2.3 kv=13.2 kVA=80.0 wdg=2 bus=x_828.1.2.3 kv=0.38 kVA=80.0 %imag=0.5 %loadloss=1.5 %noloadloss=0.25 XHL=2.0 conns=[delta, wye, ] ppm_antifloat=0
New Transformer.idseta_14 phases=3 wdg=1 bus=945.1.2.3 kv=13.2 kVA=315.0 wdg=2 bus=x_14.1.2.3 kv=0.38 kVA=315.0 %imag=0.5 %loadloss=1.5 %noloadloss=0.25 XHL=2.0 conns=[delta, wye, ] ppm_antifloat=0
New Transformer.idseta_15 phases=3 wdg=1 bus=949.1.2.3 kv=13.2 kVA=315.0 wdg=2 bus=x_15.1.2.3 kv=0.38 kVA=315.0 %imag=0.5 %loadloss=1.5 %noloadloss=0.25 XHL=2.0 conns=[delta, wye, ] ppm_antifloat=0
New Transformer.idseta_17 phases=3 wdg=1 bus=1813.1.2.3 kv=13.2 kVA=400.0 wdg=2 bus=x_17.1.2.3 kv=0.38 kVA=400.0 %imag=0.5 %loadloss=1.5 %noloadloss=0.25 XHL=2.0 conns=[delta, wye, ] ppm_antifloat=0
New Transformer.idseta_20 phases=3 wdg=1 bus=102.1.2.3 kv=13.2 kVA=80.0 wdg=2 bus=x_20.1.2.3 kv=0.38 kVA=80.0 %imag=0.5 %loadloss=1.5 %noloadloss=0.25 XHL=2.0 conns=[delta, wye, ] ppm_antifloat=0
New Transformer.idseta_50 phases=3 wdg=1 bus=992.1.2.3 kv=13.2 kVA=400.0 wdg=2 bus=x_50.1.2.3 kv=0.38 kVA=400.0 %imag=0.5 %loadloss=1.5 %noloadloss=0.25 XHL=2.0 conns=[delta, wye, ] ppm_antifloat=0
New Transformer.idseta_51 phases=3 wdg=1 bus=993.1.2.3 kv=13.2 kVA=315.0 wdg=2 bus=x_51.1.2.3 kv=0.38 kVA=315.0 %imag=0.5 %loadloss=1.5 %noloadloss=0.25 XHL=2.0 conns=[delta, wye, ] ppm_antifloat=0
New Transformer.idseta_1243 phases=3 wdg=1 bus=1741.1.2.3 kv=13.2 kVA=25.0 wdg=2 bus=x_1243.1.2.3 kv=0.38 kVA=25.0 %imag=0.5 %loadloss=1.5 %noloadloss=0.25 XHL=2.0 conns=[delta, wye, ] ppm_antifloat=0
New Transformer.idseta_1244 phases=3 wdg=1 bus=861.1.2.3 kv=13.2 kVA=80.0 wdg=2 bus=x_1244.1.2.3 kv=0.38 kVA=80.0 %imag=0.5 %loadloss=1.5 %noloadloss=0.25 XHL=2.0 conns=[delta, wye, ] ppm_antifloat=0
New Transformer.idseta_1245 phases=3 wdg=1 bus=860.1.2.3 kv=13.2 kVA=80.0 wdg=2 bus=x_1245.1.2.3 kv=0.38 kVA=80.0 %imag=0.5 %loadloss=1.5 %noloadloss=0.25 XHL=2.0 conns=[delta, wye, ] ppm_antifloat=0
New Transformer.idseta_1289 phases=3 wdg=1 bus=293.1.2.3 kv=13.2 kVA=100.0 wdg=2 bus=x_1289.1.2.3 kv=0.38 kVA=100.0 %imag=0.5 %loadloss=1.5 %noloadloss=0.25 XHL=2.0 conns=[delta, wye, ] ppm_antifloat=0
New Transformer.idseta_1318 phases=3 wdg=1 bus=760.1.2.3 kv=13.2 kVA=5.0 wdg=2 bus=x_1318.1.2.3 kv=0.38 kVA=5.0 %imag=0.5 %loadloss=1.5 %noloadloss=0.25 XHL=2.0 conns=[delta, wye, ] ppm_antifloat=0
New Transformer.idseta_1326 phases=3 wdg=1 bus=1281.1.2.3 kv=13.2 kVA=5.0 wdg=2 bus=x_1326.1.2.3 kv=0.38 kVA=5.0 %imag=0.5 %loadloss=1.5 %noloadloss=0.25 XHL=2.0 conns=[delta, wye, ] ppm_antifloat=0
New Transformer.idseta_1352 phases=3 wdg=1 bus=826.1.2.3 kv=13.2 kVA=160.0 wdg=2 bus=x_1352.1.2.3 kv=0.38 kVA=160.0 %imag=0.5 %loadloss=1.5 %noloadloss=0.25 XHL=2.0 conns=[delta, wye, ] ppm_antifloat=0
New Transformer.idseta_5030 phases=3 wdg=1 bus=1751.1.2.3 kv=33.0 kVA=25.0 wdg=2 bus=x_5030.1.2.3 kv=0.38 kVA=25.0 %imag=0.5 %loadloss=1.5 %noloadloss=0.25 XHL=2.0 conns=[delta, wye, ] ppm_antifloat=0
New Transformer.idseta_1353 phases=3 wdg=1 bus=856.1.2.3 kv=13.2 kVA=200.0 wdg=2 bus=x_1353.1.2.3 kv=0.38 kVA=200.0 %imag=0.5 %loadloss=1.5 %noloadloss=0.25 XHL=2.0 conns=[delta, wye, ] ppm_antifloat=0
New Transformer.idseta_1984 phases=3 wdg=1 bus=321.1.2.3 kv=13.2 kVA=40.0 wdg=2 bus=x_1984.1.2.3 kv=0.38 kVA=40.0 %imag=0.5 %loadloss=1.5 %noloadloss=0.25 XHL=2.0 conns=[delta, wye, ] ppm_antifloat=0
New Transformer.idseta_2064 phases=3 wdg=1 bus=319.1.2.3 kv=13.2 kVA=63.0 wdg=2 bus=x_2064.1.2.3 kv=0.38 kVA=63.0 %imag=0.5 %loadloss=1.5 %noloadloss=0.25 XHL=2.0 conns=[delta, wye, ] ppm_antifloat=0
New Transformer.idseta_2065 phases=3 wdg=1 bus=309.1.2.3 kv=13.2 kVA=10.0 wdg=2 bus=x_2065.1.2.3 kv=0.38 kVA=10.0 %imag=0.5 %loadloss=1.5 %noloadloss=0.25 XHL=2.0 conns=[delta, wye, ] ppm_antifloat=0
New Transformer.idseta_2073 phases=3 wdg=1 bus=1.1.2.3 kv=13.2 kVA=40.0 wdg=2 bus=x_2073.1.2.3 kv=0.38 kVA=40.0 %imag=0.5 %loadloss=1.5 %noloadloss=0.25 XHL=2.0 conns=[delta, wye, ] ppm_antifloat=0
New Transformer.idseta_2074 phases=3 wdg=1 bus=706.1.2.3 kv=13.2 kVA=63.0 wdg=2 bus=x_2074.1.2.3 kv=0.38 kVA=63.0 %imag=0.5 %loadloss=1.5 %noloadloss=0.25 XHL=2.0 conns=[delta, wye, ] ppm_antifloat=0
New Transformer.idseta_151 phases=3 wdg=1 bus=1779.1.2.3 kv=13.2 kVA=63.0 wdg=2 bus=x_151.1.2.3 kv=0.38 kVA=63.0 %imag=0.5 %loadloss=1.5 %noloadloss=0.25 XHL=2.0 conns=[delta, wye, ] ppm_antifloat=0
New Transformer.idseta_2286 phases=3 wdg=1 bus=867.1.2.3 kv=13.2 kVA=100.0 wdg=2 bus=x_2286.1.2.3 kv=0.38 kVA=100.0 %imag=0.5 %loadloss=1.5 %noloadloss=0.25 XHL=2.0 conns=[delta, wye, ] ppm_antifloat=0
New Transformer.idseta_81 phases=3 wdg=1 bus=948.1.2.3 kv=13.2 kVA=400.0 wdg=2 bus=x_81.1.2.3 kv=0.38 kVA=400.0 %imag=0.5 %loadloss=1.5 %noloadloss=0.25 XHL=2.0 conns=[delta, wye, ] ppm_antifloat=0
New Transformer.idseta_82 phases=3 wdg=1 bus=1692.1.2.3 kv=13.2 kVA=315.0 wdg=2 bus=x_82.1.2.3 kv=0.38 kVA=315.0 %imag=0.5 %loadloss=1.5 %noloadloss=0.25 XHL=2.0 conns=[delta, wye, ] ppm_antifloat=0
New Transformer.idseta_83 phases=3 wdg=1 bus=219.1.2.3 kv=13.2 kVA=315.0 wdg=2 bus=x_83.1.2.3 kv=0.38 kVA=315.0 %imag=0.5 %loadloss=1.5 %noloadloss=0.25 XHL=2.0 conns=[delta, wye, ] ppm_antifloat=0
New Transformer.idseta_202 phases=3 wdg=1 bus=1296.1.2.3 kv=13.2 kVA=800.0 wdg=2 bus=x_202.1.2.3 kv=0.38 kVA=800.0 %imag=0.5 %loadloss=1.5 %noloadloss=0.25 XHL=2.0 conns=[delta, wye, ] ppm_antifloat=0
New Transformer.idseta_204 phases=3 wdg=1 bus=741.1.2.3 kv=13.2 kVA=63.0 wdg=2 bus=x_204.1.2.3 kv=0.38 kVA=63.0 %imag=0.5 %loadloss=1.5 %noloadloss=0.25 XHL=2.0 conns=[delta, wye, ] ppm_antifloat=0
New Transformer.idseta_242 phases=3 wdg=1 bus=1536.1.2.3 kv=13.2 kVA=63.0 wdg=2 bus=x_242.1.2.3 kv=0.38 kVA=63.0 %imag=0.5 %loadloss=1.5 %noloadloss=0.25 XHL=2.0 conns=[delta, wye, ] ppm_antifloat=0
New Transformer.idseta_252 phases=3 wdg=1 bus=805.1.2.3 kv=13.2 kVA=10.0 wdg=2 bus=x_252.1.2.3 kv=0.38 kVA=10.0 %imag=0.5 %loadloss=1.5 %noloadloss=0.25 XHL=2.0 conns=[delta, wye, ] ppm_antifloat=0
New Transformer.idseta_335 phases=3 wdg=1 bus=1060.1.2.3 kv=13.2 kVA=315.0 wdg=2 bus=x_335.1.2.3 kv=0.38 kVA=315.0 %imag=0.5 %loadloss=1.5 %noloadloss=0.25 XHL=2.0 conns=[delta, wye, ] ppm_antifloat=0
New Transformer.idseta_400 phases=3 wdg=1 bus=1723.1.2.3 kv=13.2 kVA=63.0 wdg=2 bus=x_400.1.2.3 kv=0.38 kVA=63.0 %imag=0.5 %loadloss=1.5 %noloadloss=0.25 XHL=2.0 conns=[delta, wye, ] ppm_antifloat=0
New Transformer.idseta_2377 phases=3 wdg=1 bus=429.1.2.3 kv=13.2 kVA=5.0 wdg=2 bus=x_2377.1.2.3 kv=0.38 kVA=5.0 %imag=0.5 %loadloss=1.5 %noloadloss=0.25 XHL=2.0 conns=[delta, wye, ] ppm_antifloat=0
New Transformer.idseta_2395 phases=3 wdg=1 bus=42.1.2.3 kv=13.2 kVA=25.0 wdg=2 bus=x_2395.1.2.3 kv=0.38 kVA=25.0 %imag=0.5 %loadloss=1.5 %noloadloss=0.25 XHL=2.0 conns=[delta, wye, ] ppm_antifloat=0
New Transformer.idseta_2548 phases=3 wdg=1 bus=48.1.2.3 kv=13.2 kVA=5.0 wdg=2 bus=x_2548.1.2.3 kv=0.38 kVA=5.0 %imag=0.5 %loadloss=1.5 %noloadloss=0.25 XHL=2.0 conns=[delta, wye, ] ppm_antifloat=0
New Transformer.idseta_2644 phases=3 wdg=1 bus=393.1.2.3 kv=13.2 kVA=5.0 wdg=2 bus=x_2644.1.2.3 kv=0.38 kVA=5.0 %imag=0.5 %loadloss=1.5 %noloadloss=0.25 XHL=2.0 conns=[delta, wye, ] ppm_antifloat=0
New Transformer.idseta_3022 phases=3 wdg=1 bus=1643.1.2.3 kv=13.2 kVA=63.0 wdg=2 bus=x_3022.1.2.3 kv=0.38 kVA=63.0 %imag=0.5 %loadloss=1.5 %noloadloss=0.25 XHL=2.0 conns=[delta, wye, ] ppm_antifloat=0
New Transformer.idseta_2645 phases=3 wdg=1 bus=266.1.2.3 kv=13.2 kVA=16.0 wdg=2 bus=x_2645.1.2.3 kv=0.38 kVA=16.0 %imag=0.5 %loadloss=1.5 %noloadloss=0.25 XHL=2.0 conns=[delta, wye, ] ppm_antifloat=0
New Transformer.idseta_2646 phases=3 wdg=1 bus=361.1.2.3 kv=13.2 kVA=16.0 wdg=2 bus=x_2646.1.2.3 kv=0.38 kVA=16.0 %imag=0.5 %loadloss=1.5 %noloadloss=0.25 XHL=2.0 conns=[delta, wye, ] ppm_antifloat=0
New Transformer.idseta_2660 phases=3 wdg=1 bus=657.1.2.3 kv=13.2 kVA=160.0 wdg=2 bus=x_2660.1.2.3 kv=0.38 kVA=160.0 %imag=0.5 %loadloss=1.5 %noloadloss=0.25 XHL=2.0 conns=[delta, wye, ] ppm_antifloat=0
New Transformer.idseta_11 phases=3 wdg=1 bus=1540.1.2.3 kv=13.2 kVA=315.0 wdg=2 bus=x_11.1.2.3 kv=0.38 kVA=315.0 %imag=0.5 %loadloss=1.5 %noloadloss=0.25 XHL=2.0 conns=[delta, wye, ] ppm_antifloat=0
New Transformer.idseta_12 phases=3 wdg=1 bus=911.1.2.3 kv=13.2 kVA=315.0 wdg=2 bus=x_12.1.2.3 kv=0.38 kVA=315.0 %imag=0.5 %loadloss=1.5 %noloadloss=0.25 XHL=2.0 conns=[delta, wye, ] ppm_antifloat=0
New Transformer.idseta_13 phases=3 wdg=1 bus=913.1.2.3 kv=13.2 kVA=315.0 wdg=2 bus=x_13.1.2.3 kv=0.38 kVA=315.0 %imag=0.5 %loadloss=1.5 %noloadloss=0.25 XHL=2.0 conns=[delta, wye, ] ppm_antifloat=0
New Transformer.idseta_2666 phases=3 wdg=1 bus=1417.1.2.3 kv=13.2 kVA=315.0 wdg=2 bus=x_2666.1.2.3 kv=0.38 kVA=315.0 %imag=0.5 %loadloss=1.5 %noloadloss=0.25 XHL=2.0 conns=[delta, wye, ] ppm_antifloat=0
New Transformer.idseta_2683 phases=3 wdg=1 bus=830.1.2.3 kv=13.2 kVA=160.0 wdg=2 bus=x_2683.1.2.3 kv=0.38 kVA=160.0 %imag=0.5 %loadloss=1.5 %noloadloss=0.25 XHL=2.0 conns=[delta, wye, ] ppm_antifloat=0
New Transformer.idseta_2724 phases=3 wdg=1 bus=260.1.2.3 kv=13.2 kVA=5.0 wdg=2 bus=x_2724.1.2.3 kv=0.38 kVA=5.0 %imag=0.5 %loadloss=1.5 %noloadloss=0.25 XHL=2.0 conns=[delta, wye, ] ppm_antifloat=0
New Transformer.idseta_2748 phases=3 wdg=1 bus=781.1.2.3 kv=13.2 kVA=40.0 wdg=2 bus=x_2748.1.2.3 kv=0.38 kVA=40.0 %imag=0.5 %loadloss=1.5 %noloadloss=0.25 XHL=2.0 conns=[delta, wye, ] ppm_antifloat=0
New Transformer.idseta_2937 phases=3 wdg=1 bus=100.1.2.3 kv=13.2 kVA=630.0 wdg=2 bus=x_2937.1.2.3 kv=0.38 kVA=630.0 %imag=0.5 %loadloss=1.5 %noloadloss=0.25 XHL=2.0 conns=[delta, wye, ] ppm_antifloat=0
New Transformer.idseta_2950 phases=3 wdg=1 bus=833.1.2.3 kv=13.2 kVA=63.0 wdg=2 bus=x_2950.1.2.3 kv=0.38 kVA=63.0 %imag=0.5 %loadloss=1.5 %noloadloss=0.25 XHL=2.0 conns=[delta, wye, ] ppm_antifloat=0
New Transformer.idseta_2951 phases=3 wdg=1 bus=313.1.2.3 kv=13.2 kVA=63.0 wdg=2 bus=x_2951.1.2.3 kv=0.38 kVA=63.0 %imag=0.5 %loadloss=1.5 %noloadloss=0.25 XHL=2.0 conns=[delta, wye, ] ppm_antifloat=0
New Transformer.idseta_2952 phases=3 wdg=1 bus=308.1.2.3 kv=13.2 kVA=5.0 wdg=2 bus=x_2952.1.2.3 kv=0.38 kVA=5.0 %imag=0.5 %loadloss=1.5 %noloadloss=0.25 XHL=2.0 conns=[delta, wye, ] ppm_antifloat=0
New Transformer.idseta_2953 phases=3 wdg=1 bus=1053.1.2.3 kv=13.2 kVA=25.0 wdg=2 bus=x_2953.1.2.3 kv=0.38 kVA=25.0 %imag=0.5 %loadloss=1.5 %noloadloss=0.25 XHL=2.0 conns=[delta, wye, ] ppm_antifloat=0
New Transformer.idseta_2954 phases=3 wdg=1 bus=249.1.2.3 kv=13.2 kVA=315.0 wdg=2 bus=x_2954.1.2.3 kv=0.38 kVA=315.0 %imag=0.5 %loadloss=1.5 %noloadloss=0.25 XHL=2.0 conns=[delta, wye, ] ppm_antifloat=0
New Transformer.idseta_2955 phases=3 wdg=1 bus=231.1.2.3 kv=13.2 kVA=200.0 wdg=2 bus=x_2955.1.2.3 kv=0.38 kVA=200.0 %imag=0.5 %loadloss=1.5 %noloadloss=0.25 XHL=2.0 conns=[delta, wye, ] ppm_antifloat=0
New Transformer.idseta_2961 phases=3 wdg=1 bus=390.1.2.3 kv=13.2 kVA=40.0 wdg=2 bus=x_2961.1.2.3 kv=0.38 kVA=40.0 %imag=0.5 %loadloss=1.5 %noloadloss=0.25 XHL=2.0 conns=[delta, wye, ] ppm_antifloat=0
New Transformer.idseta_2963 phases=3 wdg=1 bus=1704.1.2.3 kv=13.2 kVA=16.0 wdg=2 bus=x_2963.1.2.3 kv=0.38 kVA=16.0 %imag=0.5 %loadloss=1.5 %noloadloss=0.25 XHL=2.0 conns=[delta, wye, ] ppm_antifloat=0
New Transformer.idseta_2964 phases=3 wdg=1 bus=1676.1.2.3 kv=13.2 kVA=63.0 wdg=2 bus=x_2964.1.2.3 kv=0.38 kVA=63.0 %imag=0.5 %loadloss=1.5 %noloadloss=0.25 XHL=2.0 conns=[delta, wye, ] ppm_antifloat=0
New Transformer.idseta_2968 phases=3 wdg=1 bus=277.1.2.3 kv=13.2 kVA=75.0 wdg=2 bus=x_2968.1.2.3 kv=0.38 kVA=75.0 %imag=0.5 %loadloss=1.5 %noloadloss=0.25 XHL=2.0 conns=[delta, wye, ] ppm_antifloat=0
New Transformer.idseta_2969 phases=3 wdg=1 bus=244.1.2.3 kv=13.2 kVA=63.0 wdg=2 bus=x_2969.1.2.3 kv=0.38 kVA=63.0 %imag=0.5 %loadloss=1.5 %noloadloss=0.25 XHL=2.0 conns=[delta, wye, ] ppm_antifloat=0
New Transformer.idseta_2970 phases=3 wdg=1 bus=720.1.2.3 kv=13.2 kVA=63.0 wdg=2 bus=x_2970.1.2.3 kv=0.38 kVA=63.0 %imag=0.5 %loadloss=1.5 %noloadloss=0.25 XHL=2.0 conns=[delta, wye, ] ppm_antifloat=0
New Transformer.idseta_2971 phases=3 wdg=1 bus=722.1.2.3 kv=13.2 kVA=80.0 wdg=2 bus=x_2971.1.2.3 kv=0.38 kVA=80.0 %imag=0.5 %loadloss=1.5 %noloadloss=0.25 XHL=2.0 conns=[delta, wye, ] ppm_antifloat=0
New Transformer.idseta_2972 phases=3 wdg=1 bus=243.1.2.3 kv=13.2 kVA=63.0 wdg=2 bus=x_2972.1.2.3 kv=0.38 kVA=63.0 %imag=0.5 %loadloss=1.5 %noloadloss=0.25 XHL=2.0 conns=[delta, wye, ] ppm_antifloat=0
New Transformer.idseta_2975 phases=3 wdg=1 bus=855.1.2.3 kv=13.2 kVA=160.0 wdg=2 bus=x_2975.1.2.3 kv=0.38 kVA=160.0 %imag=0.5 %loadloss=1.5 %noloadloss=0.25 XHL=2.0 conns=[delta, wye, ] ppm_antifloat=0
New Transformer.idseta_146 phases=3 wdg=1 bus=1762.1.2.3 kv=13.2 kVA=63.0 wdg=2 bus=x_146.1.2.3 kv=0.38 kVA=63.0 %imag=0.5 %loadloss=1.5 %noloadloss=0.25 XHL=2.0 conns=[delta, wye, ] ppm_antifloat=0
New Transformer.idseta_152 phases=3 wdg=1 bus=1801.1.2.3 kv=13.2 kVA=80.0 wdg=2 bus=x_152.1.2.3 kv=0.38 kVA=80.0 %imag=0.5 %loadloss=1.5 %noloadloss=0.25 XHL=2.0 conns=[delta, wye, ] ppm_antifloat=0
New Transformer.idseta_19 phases=3 wdg=1 bus=1051.1.2.3 kv=13.2 kVA=40.0 wdg=2 bus=x_19.1.2.3 kv=0.38 kVA=40.0 %imag=0.5 %loadloss=1.5 %noloadloss=0.25 XHL=2.0 conns=[delta, wye, ] ppm_antifloat=0
New Transformer.idseta_21 phases=3 wdg=1 bus=104.1.2.3 kv=13.2 kVA=63.0 wdg=2 bus=x_21.1.2.3 kv=0.38 kVA=63.0 %imag=0.5 %loadloss=1.5 %noloadloss=0.25 XHL=2.0 conns=[delta, wye, ] ppm_antifloat=0
New Transformer.idseta_24 phases=3 wdg=1 bus=1400.1.2.3 kv=13.2 kVA=200.0 wdg=2 bus=x_24.1.2.3 kv=0.38 kVA=200.0 %imag=0.5 %loadloss=1.5 %noloadloss=0.25 XHL=2.0 conns=[delta, wye, ] ppm_antifloat=0
New Transformer.idseta_25 phases=3 wdg=1 bus=1056.1.2.3 kv=13.2 kVA=25.0 wdg=2 bus=x_25.1.2.3 kv=0.38 kVA=25.0 %imag=0.5 %loadloss=1.5 %noloadloss=0.25 XHL=2.0 conns=[delta, wye, ] ppm_antifloat=0
New Transformer.idseta_27 phases=3 wdg=1 bus=1085.1.2.3 kv=13.2 kVA=80.0 wdg=2 bus=x_27.1.2.3 kv=0.38 kVA=80.0 %imag=0.5 %loadloss=1.5 %noloadloss=0.25 XHL=2.0 conns=[delta, wye, ] ppm_antifloat=0
New Transformer.idseta_60 phases=3 wdg=1 bus=976.1.2.3 kv=13.2 kVA=200.0 wdg=2 bus=x_60.1.2.3 kv=0.38 kVA=200.0 %imag=0.5 %loadloss=1.5 %noloadloss=0.25 XHL=2.0 conns=[delta, wye, ] ppm_antifloat=0
New Transformer.idseta_378 phases=3 wdg=1 bus=1000.1.2.3 kv=13.2 kVA=160.0 wdg=2 bus=x_378.1.2.3 kv=0.38 kVA=160.0 %imag=0.5 %loadloss=1.5 %noloadloss=0.25 XHL=2.0 conns=[delta, wye, ] ppm_antifloat=0
New Transformer.idseta_401 phases=3 wdg=1 bus=850.1.2.3 kv=13.2 kVA=16.0 wdg=2 bus=x_401.1.2.3 kv=0.38 kVA=16.0 %imag=0.5 %loadloss=1.5 %noloadloss=0.25 XHL=2.0 conns=[delta, wye, ] ppm_antifloat=0
New Transformer.idseta_2977 phases=3 wdg=1 bus=663.1.2.3 kv=13.2 kVA=63.0 wdg=2 bus=x_2977.1.2.3 kv=0.38 kVA=63.0 %imag=0.5 %loadloss=1.5 %noloadloss=0.25 XHL=2.0 conns=[delta, wye, ] ppm_antifloat=0
New Transformer.idseta_2978 phases=3 wdg=1 bus=262.1.2.3 kv=13.2 kVA=80.0 wdg=2 bus=x_2978.1.2.3 kv=0.38 kVA=80.0 %imag=0.5 %loadloss=1.5 %noloadloss=0.25 XHL=2.0 conns=[delta, wye, ] ppm_antifloat=0
New Transformer.idseta_2979 phases=3 wdg=1 bus=237.1.2.3 kv=13.2 kVA=100.0 wdg=2 bus=x_2979.1.2.3 kv=0.38 kVA=100.0 %imag=0.5 %loadloss=1.5 %noloadloss=0.25 XHL=2.0 conns=[delta, wye, ] ppm_antifloat=0
New Transformer.idseta_2981 phases=3 wdg=1 bus=29.1.2.3 kv=13.2 kVA=40.0 wdg=2 bus=x_2981.1.2.3 kv=0.38 kVA=40.0 %imag=0.5 %loadloss=1.5 %noloadloss=0.25 XHL=2.0 conns=[delta, wye, ] ppm_antifloat=0
New Transformer.idseta_2983 phases=3 wdg=1 bus=501.1.2.3 kv=13.2 kVA=630.0 wdg=2 bus=busmt_501.1.2.3 kv=33.0 kVA=630.0 %imag=0.5 %loadloss=1.5 %noloadloss=0.25 XHL=2.0 conns=[delta, delta, ] ppm_antifloat=1
New Transformer.idseta_2984 phases=3 wdg=1 bus=879.1.2.3 kv=13.2 kVA=500.0 wdg=2 bus=x_2984.1.2.3 kv=0.38 kVA=500.0 %imag=0.5 %loadloss=1.5 %noloadloss=0.25 XHL=2.0 conns=[delta, wye, ] ppm_antifloat=0
New Transformer.idseta_2987 phases=3 wdg=1 bus=1432.1.2.3 kv=13.2 kVA=25.0 wdg=2 bus=x_2987.1.2.3 kv=0.38 kVA=25.0 %imag=0.5 %loadloss=1.5 %noloadloss=0.25 XHL=2.0 conns=[delta, wye, ] ppm_antifloat=0
New Transformer.idseta_2993 phases=3 wdg=1 bus=291.1.2.3 kv=13.2 kVA=5.0 wdg=2 bus=x_2993.1.2.3 kv=0.38 kVA=5.0 %imag=0.5 %loadloss=1.5 %noloadloss=0.25 XHL=2.0 conns=[delta, wye, ] ppm_antifloat=0
New Transformer.idseta_2996 phases=3 wdg=1 bus=1284.1.2.3 kv=13.2 kVA=315.0 wdg=2 bus=x_2996.1.2.3 kv=0.38 kVA=315.0 %imag=0.5 %loadloss=1.5 %noloadloss=0.25 XHL=2.0 conns=[delta, wye, ] ppm_antifloat=0
New Transformer.idseta_2997 phases=3 wdg=1 bus=1402.1.2.3 kv=13.2 kVA=100.0 wdg=2 bus=x_2997.1.2.3 kv=0.38 kVA=100.0 %imag=0.5 %loadloss=1.5 %noloadloss=0.25 XHL=2.0 conns=[delta, wye, ] ppm_antifloat=0
New Transformer.idseta_2999 phases=3 wdg=1 bus=342.1.2.3 kv=13.2 kVA=25.0 wdg=2 bus=x_2999.1.2.3 kv=0.38 kVA=25.0 %imag=0.5 %loadloss=1.5 %noloadloss=0.25 XHL=2.0 conns=[delta, wye, ] ppm_antifloat=0
New Transformer.idseta_33 phases=3 wdg=1 bus=1688.1.2.3 kv=13.2 kVA=160.0 wdg=2 bus=x_33.1.2.3 kv=0.38 kVA=160.0 %imag=0.5 %loadloss=1.5 %noloadloss=0.25 XHL=2.0 conns=[delta, wye, ] ppm_antifloat=0
New Transformer.idseta_45 phases=3 wdg=1 bus=1398.1.2.3 kv=13.2 kVA=400.0 wdg=2 bus=x_45.1.2.3 kv=0.38 kVA=400.0 %imag=0.5 %loadloss=1.5 %noloadloss=0.25 XHL=2.0 conns=[delta, wye, ] ppm_antifloat=0
New Transformer.idseta_47 phases=3 wdg=1 bus=1064.1.2.3 kv=13.2 kVA=100.0 wdg=2 bus=x_47.1.2.3 kv=0.38 kVA=100.0 %imag=0.5 %loadloss=1.5 %noloadloss=0.25 XHL=2.0 conns=[delta, wye, ] ppm_antifloat=0
New Transformer.idseta_3000 phases=3 wdg=1 bus=1338.1.2.3 kv=13.2 kVA=40.0 wdg=2 bus=x_3000.1.2.3 kv=0.38 kVA=40.0 %imag=0.5 %loadloss=1.5 %noloadloss=0.25 XHL=2.0 conns=[delta, wye, ] ppm_antifloat=0
New Transformer.idseta_3001 phases=3 wdg=1 bus=41.1.2.3 kv=13.2 kVA=80.0 wdg=2 bus=x_3001.1.2.3 kv=0.38 kVA=80.0 %imag=0.5 %loadloss=1.5 %noloadloss=0.25 XHL=2.0 conns=[delta, wye, ] ppm_antifloat=0
New Transformer.idseta_3002 phases=3 wdg=1 bus=43.1.2.3 kv=13.2 kVA=63.0 wdg=2 bus=x_3002.1.2.3 kv=0.38 kVA=63.0 %imag=0.5 %loadloss=1.5 %noloadloss=0.25 XHL=2.0 conns=[delta, wye, ] ppm_antifloat=0
New Transformer.idseta_3003 phases=3 wdg=1 bus=1067.1.2.3 kv=13.2 kVA=160.0 wdg=2 bus=x_3003.1.2.3 kv=0.38 kVA=160.0 %imag=0.5 %loadloss=1.5 %noloadloss=0.25 XHL=2.0 conns=[delta, wye, ] ppm_antifloat=0
New Transformer.idseta_3006 phases=3 wdg=1 bus=1041.1.2.3 kv=13.2 kVA=200.0 wdg=2 bus=x_3006.1.2.3 kv=0.38 kVA=200.0 %imag=0.5 %loadloss=1.5 %noloadloss=0.25 XHL=2.0 conns=[delta, wye, ] ppm_antifloat=0
New Transformer.idseta_3009 phases=3 wdg=1 bus=63.1.2.3 kv=13.2 kVA=315.0 wdg=2 bus=x_3009.1.2.3 kv=0.38 kVA=315.0 %imag=0.5 %loadloss=1.5 %noloadloss=0.25 XHL=2.0 conns=[delta, wye, ] ppm_antifloat=0
New Transformer.idseta_3010 phases=3 wdg=1 bus=366.1.2.3 kv=13.2 kVA=25.0 wdg=2 bus=x_3010.1.2.3 kv=0.38 kVA=25.0 %imag=0.5 %loadloss=1.5 %noloadloss=0.25 XHL=2.0 conns=[delta, wye, ] ppm_antifloat=0
New Transformer.idseta_3011 phases=3 wdg=1 bus=76.1.2.3 kv=13.2 kVA=40.0 wdg=2 bus=x_3011.1.2.3 kv=0.38 kVA=40.0 %imag=0.5 %loadloss=1.5 %noloadloss=0.25 XHL=2.0 conns=[delta, wye, ] ppm_antifloat=0
New Transformer.idseta_3012 phases=3 wdg=1 bus=1013.1.2.3 kv=13.2 kVA=125.0 wdg=2 bus=x_3012.1.2.3 kv=0.38 kVA=125.0 %imag=0.5 %loadloss=1.5 %noloadloss=0.25 XHL=2.0 conns=[delta, wye, ] ppm_antifloat=0
New Transformer.idseta_3013 phases=3 wdg=1 bus=692.1.2.3 kv=13.2 kVA=160.0 wdg=2 bus=x_3013.1.2.3 kv=0.38 kVA=160.0 %imag=0.5 %loadloss=1.5 %noloadloss=0.25 XHL=2.0 conns=[delta, wye, ] ppm_antifloat=0
New Transformer.idseta_3014 phases=3 wdg=1 bus=1312.1.2.3 kv=13.2 kVA=40.0 wdg=2 bus=x_3014.1.2.3 kv=0.38 kVA=40.0 %imag=0.5 %loadloss=1.5 %noloadloss=0.25 XHL=2.0 conns=[delta, wye, ] ppm_antifloat=0
New Transformer.idseta_3015 phases=3 wdg=1 bus=1447.1.2.3 kv=13.2 kVA=63.0 wdg=2 bus=x_3015.1.2.3 kv=0.38 kVA=63.0 %imag=0.5 %loadloss=1.5 %noloadloss=0.25 XHL=2.0 conns=[delta, wye, ] ppm_antifloat=0
New Transformer.idseta_3016 phases=3 wdg=1 bus=774.1.2.3 kv=13.2 kVA=100.0 wdg=2 bus=x_3016.1.2.3 kv=0.38 kVA=100.0 %imag=0.5 %loadloss=1.5 %noloadloss=0.25 XHL=2.0 conns=[delta, wye, ] ppm_antifloat=0
New Transformer.idseta_3017 phases=3 wdg=1 bus=1446.1.2.3 kv=13.2 kVA=100.0 wdg=2 bus=x_3017.1.2.3 kv=0.38 kVA=100.0 %imag=0.5 %loadloss=1.5 %noloadloss=0.25 XHL=2.0 conns=[delta, wye, ] ppm_antifloat=0
New Transformer.idseta_3019 phases=3 wdg=1 bus=818.1.2.3 kv=13.2 kVA=40.0 wdg=2 bus=x_3019.1.2.3 kv=0.38 kVA=40.0 %imag=0.5 %loadloss=1.5 %noloadloss=0.25 XHL=2.0 conns=[delta, wye, ] ppm_antifloat=0
New Transformer.idseta_3020 phases=3 wdg=1 bus=731.1.2.3 kv=13.2 kVA=63.0 wdg=2 bus=x_3020.1.2.3 kv=0.38 kVA=63.0 %imag=0.5 %loadloss=1.5 %noloadloss=0.25 XHL=2.0 conns=[delta, wye, ] ppm_antifloat=0
New Transformer.idseta_3021 phases=3 wdg=1 bus=91.1.2.3 kv=13.2 kVA=315.0 wdg=2 bus=x_3021.1.2.3 kv=0.38 kVA=315.0 %imag=0.5 %loadloss=1.5 %noloadloss=0.25 XHL=2.0 conns=[delta, wye, ] ppm_antifloat=0
New Transformer.idseta_3117 phases=3 wdg=1 bus=759.1.2.3 kv=13.2 kVA=80.0 wdg=2 bus=x_3117.1.2.3 kv=0.38 kVA=80.0 %imag=0.5 %loadloss=1.5 %noloadloss=0.25 XHL=2.0 conns=[delta, wye, ] ppm_antifloat=0
New Transformer.idseta_5001 phases=3 wdg=1 bus=1197.1.2.3 kv=33.0 kVA=25.0 wdg=2 bus=x_5001.1.2.3 kv=0.38 kVA=25.0 %imag=0.5 %loadloss=1.5 %noloadloss=0.25 XHL=2.0 conns=[delta, wye, ] ppm_antifloat=0
New Transformer.idseta_5002 phases=3 wdg=1 bus=1753.1.2.3 kv=33.0 kVA=16.0 wdg=2 bus=x_5002.1.2.3 kv=0.38 kVA=16.0 %imag=0.5 %loadloss=1.5 %noloadloss=0.25 XHL=2.0 conns=[delta, wye, ] ppm_antifloat=0
New Transformer.idseta_5007 phases=3 wdg=1 bus=1241.1.2.3 kv=33.0 kVA=5.0 wdg=2 bus=x_5007.1.2.3 kv=0.38 kVA=5.0 %imag=0.5 %loadloss=1.5 %noloadloss=0.25 XHL=2.0 conns=[delta, wye, ] ppm_antifloat=0
New Transformer.idseta_48 phases=3 wdg=1 bus=1456.1.2.3 kv=13.2 kVA=200.0 wdg=2 bus=x_48.1.2.3 kv=0.38 kVA=200.0 %imag=0.5 %loadloss=1.5 %noloadloss=0.25 XHL=2.0 conns=[delta, wye, ] ppm_antifloat=0
New Transformer.idseta_49 phases=3 wdg=1 bus=1635.1.2.3 kv=13.2 kVA=315.0 wdg=2 bus=x_49.1.2.3 kv=0.38 kVA=315.0 %imag=0.5 %loadloss=1.5 %noloadloss=0.25 XHL=2.0 conns=[delta, wye, ] ppm_antifloat=0
New Transformer.idseta_52 phases=3 wdg=1 bus=989.1.2.3 kv=13.2 kVA=315.0 wdg=2 bus=x_52.1.2.3 kv=0.38 kVA=315.0 %imag=0.5 %loadloss=1.5 %noloadloss=0.25 XHL=2.0 conns=[delta, wye, ] ppm_antifloat=0
New Transformer.idseta_53 phases=3 wdg=1 bus=1003.1.2.3 kv=13.2 kVA=200.0 wdg=2 bus=x_53.1.2.3 kv=0.38 kVA=200.0 %imag=0.5 %loadloss=1.5 %noloadloss=0.25 XHL=2.0 conns=[delta, wye, ] ppm_antifloat=0
New Transformer.idseta_54 phases=3 wdg=1 bus=1345.1.2.3 kv=13.2 kVA=315.0 wdg=2 bus=x_54.1.2.3 kv=0.38 kVA=315.0 %imag=0.5 %loadloss=1.5 %noloadloss=0.25 XHL=2.0 conns=[delta, wye, ] ppm_antifloat=0
New Transformer.idseta_55 phases=3 wdg=1 bus=997.1.2.3 kv=13.2 kVA=315.0 wdg=2 bus=x_55.1.2.3 kv=0.38 kVA=315.0 %imag=0.5 %loadloss=1.5 %noloadloss=0.25 XHL=2.0 conns=[delta, wye, ] ppm_antifloat=0
New Transformer.idseta_56 phases=3 wdg=1 bus=982.1.2.3 kv=13.2 kVA=315.0 wdg=2 bus=x_56.1.2.3 kv=0.38 kVA=315.0 %imag=0.5 %loadloss=1.5 %noloadloss=0.25 XHL=2.0 conns=[delta, wye, ] ppm_antifloat=0
New Transformer.idseta_5008 phases=3 wdg=1 bus=1252.1.2.3 kv=33.0 kVA=25.0 wdg=2 bus=x_5008.1.2.3 kv=0.38 kVA=25.0 %imag=0.5 %loadloss=1.5 %noloadloss=0.25 XHL=2.0 conns=[delta, wye, ] ppm_antifloat=0
New Transformer.idseta_5009 phases=3 wdg=1 bus=1465.1.2.3 kv=33.0 kVA=63.0 wdg=2 bus=x_5009.1.2.3 kv=0.38 kVA=63.0 %imag=0.5 %loadloss=1.5 %noloadloss=0.25 XHL=2.0 conns=[delta, wye, ] ppm_antifloat=0
New Transformer.idseta_5012 phases=3 wdg=1 bus=529.1.2.3 kv=13.2 kVA=5.0 wdg=2 bus=x_5012.1.2.3 kv=0.38 kVA=5.0 %imag=0.5 %loadloss=1.5 %noloadloss=0.25 XHL=2.0 conns=[delta, wye, ] ppm_antifloat=0
New Transformer.idseta_5013 phases=3 wdg=1 bus=554.1.2.3 kv=13.2 kVA=10.0 wdg=2 bus=x_5013.1.2.3 kv=0.38 kVA=10.0 %imag=0.5 %loadloss=1.5 %noloadloss=0.25 XHL=2.0 conns=[delta, wye, ] ppm_antifloat=0
New Transformer.idseta_5014 phases=3 wdg=1 bus=1270.1.2.3 kv=33.0 kVA=80.0 wdg=2 bus=busmt_1270.1.2.3 kv=13.2 kVA=80.0 %imag=0.5 %loadloss=1.5 %noloadloss=0.25 XHL=2.0 conns=[delta, delta, ] ppm_antifloat=1
New Transformer.idseta_5015 phases=3 wdg=1 bus=557.1.2.3 kv=13.2 kVA=100.0 wdg=2 bus=x_5015.1.2.3 kv=0.38 kVA=100.0 %imag=0.5 %loadloss=1.5 %noloadloss=0.25 XHL=2.0 conns=[delta, wye, ] ppm_antifloat=0
New Transformer.idseta_5016 phases=3 wdg=1 bus=553.1.2.3 kv=13.2 kVA=10.0 wdg=2 bus=x_5016.1.2.3 kv=0.38 kVA=10.0 %imag=0.5 %loadloss=1.5 %noloadloss=0.25 XHL=2.0 conns=[delta, wye, ] ppm_antifloat=0
New Transformer.idseta_5017 phases=3 wdg=1 bus=560.1.2.3 kv=13.2 kVA=5.0 wdg=2 bus=x_5017.1.2.3 kv=0.38 kVA=5.0 %imag=0.5 %loadloss=1.5 %noloadloss=0.25 XHL=2.0 conns=[delta, wye, ] ppm_antifloat=0
New Transformer.idseta_5018 phases=3 wdg=1 bus=546.1.2.3 kv=13.2 kVA=5.0 wdg=2 bus=x_5018.1.2.3 kv=0.38 kVA=5.0 %imag=0.5 %loadloss=1.5 %noloadloss=0.25 XHL=2.0 conns=[delta, wye, ] ppm_antifloat=0
New Transformer.idseta_5019 phases=3 wdg=1 bus=173.1.2.3 kv=13.2 kVA=63.0 wdg=2 bus=x_5019.1.2.3 kv=0.38 kVA=63.0 %imag=0.5 %loadloss=1.5 %noloadloss=0.25 XHL=2.0 conns=[delta, wye, ] ppm_antifloat=0
New Transformer.idseta_5025 phases=3 wdg=1 bus=535.1.2.3 kv=13.2 kVA=16.0 wdg=2 bus=x_5025.1.2.3 kv=0.38 kVA=16.0 %imag=0.5 %loadloss=1.5 %noloadloss=0.25 XHL=2.0 conns=[delta, wye, ] ppm_antifloat=0
New Transformer.idseta_5026 phases=3 wdg=1 bus=1186.1.2.3 kv=33.0 kVA=16.0 wdg=2 bus=x_5026.1.2.3 kv=0.38 kVA=16.0 %imag=0.5 %loadloss=1.5 %noloadloss=0.25 XHL=2.0 conns=[delta, wye, ] ppm_antifloat=0
New Transformer.idseta_5027 phases=3 wdg=1 bus=1683.1.2.3 kv=13.2 kVA=10.0 wdg=2 bus=x_5027.1.2.3 kv=0.38 kVA=10.0 %imag=0.5 %loadloss=1.5 %noloadloss=0.25 XHL=2.0 conns=[delta, wye, ] ppm_antifloat=0
New Transformer.idseta_5028 phases=3 wdg=1 bus=530.1.2.3 kv=13.2 kVA=5.0 wdg=2 bus=x_5028.1.2.3 kv=0.38 kVA=5.0 %imag=0.5 %loadloss=1.5 %noloadloss=0.25 XHL=2.0 conns=[delta, wye, ] ppm_antifloat=0
New Transformer.idseta_57 phases=3 wdg=1 bus=944.1.2.3 kv=13.2 kVA=315.0 wdg=2 bus=x_57.1.2.3 kv=0.38 kVA=315.0 %imag=0.5 %loadloss=1.5 %noloadloss=0.25 XHL=2.0 conns=[delta, wye, ] ppm_antifloat=0
New Transformer.idseta_59 phases=3 wdg=1 bus=977.1.2.3 kv=13.2 kVA=315.0 wdg=2 bus=x_59.1.2.3 kv=0.38 kVA=315.0 %imag=0.5 %loadloss=1.5 %noloadloss=0.25 XHL=2.0 conns=[delta, wye, ] ppm_antifloat=0
New Transformer.idseta_61 phases=3 wdg=1 bus=965.1.2.3 kv=13.2 kVA=250.0 wdg=2 bus=x_61.1.2.3 kv=0.38 kVA=250.0 %imag=0.5 %loadloss=1.5 %noloadloss=0.25 XHL=2.0 conns=[delta, wye, ] ppm_antifloat=0
New Transformer.idseta_71 phases=3 wdg=1 bus=915.1.2.3 kv=13.2 kVA=200.0 wdg=2 bus=x_71.1.2.3 kv=0.38 kVA=200.0 %imag=0.5 %loadloss=1.5 %noloadloss=0.25 XHL=2.0 conns=[delta, wye, ] ppm_antifloat=0
New Transformer.idseta_72 phases=3 wdg=1 bus=97.1.2.3 kv=13.2 kVA=200.0 wdg=2 bus=x_72.1.2.3 kv=0.38 kVA=200.0 %imag=0.5 %loadloss=1.5 %noloadloss=0.25 XHL=2.0 conns=[delta, wye, ] ppm_antifloat=0
New Transformer.idseta_75 phases=3 wdg=1 bus=905.1.2.3 kv=13.2 kVA=100.0 wdg=2 bus=x_75.1.2.3 kv=0.38 kVA=100.0 %imag=0.5 %loadloss=1.5 %noloadloss=0.25 XHL=2.0 conns=[delta, wye, ] ppm_antifloat=0
New Transformer.idseta_76 phases=3 wdg=1 bus=930.1.2.3 kv=13.2 kVA=315.0 wdg=2 bus=x_76.1.2.3 kv=0.38 kVA=315.0 %imag=0.5 %loadloss=1.5 %noloadloss=0.25 XHL=2.0 conns=[delta, wye, ] ppm_antifloat=0
New Transformer.idseta_77 phases=3 wdg=1 bus=62.1.2.3 kv=13.2 kVA=200.0 wdg=2 bus=x_77.1.2.3 kv=0.38 kVA=200.0 %imag=0.5 %loadloss=1.5 %noloadloss=0.25 XHL=2.0 conns=[delta, wye, ] ppm_antifloat=0
New Transformer.idseta_78 phases=3 wdg=1 bus=1007.1.2.3 kv=13.2 kVA=200.0 wdg=2 bus=x_78.1.2.3 kv=0.38 kVA=200.0 %imag=0.5 %loadloss=1.5 %noloadloss=0.25 XHL=2.0 conns=[delta, wye, ] ppm_antifloat=0
New Transformer.idseta_433 phases=3 wdg=1 bus=672.1.2.3 kv=13.2 kVA=100.0 wdg=2 bus=x_433.1.2.3 kv=0.38 kVA=100.0 %imag=0.5 %loadloss=1.5 %noloadloss=0.25 XHL=2.0 conns=[delta, wye, ] ppm_antifloat=0
New Transformer.idseta_439 phases=3 wdg=1 bus=1419.1.2.3 kv=13.2 kVA=63.0 wdg=2 bus=x_439.1.2.3 kv=0.38 kVA=63.0 %imag=0.5 %loadloss=1.5 %noloadloss=0.25 XHL=2.0 conns=[delta, wye, ] ppm_antifloat=0
New Transformer.idseta_505 phases=3 wdg=1 bus=1058.1.2.3 kv=13.2 kVA=250.0 wdg=2 bus=x_505.1.2.3 kv=0.38 kVA=250.0 %imag=0.5 %loadloss=1.5 %noloadloss=0.25 XHL=2.0 conns=[delta, wye, ] ppm_antifloat=0
New Transformer.idseta_520 phases=3 wdg=1 bus=1535.1.2.3 kv=13.2 kVA=100.0 wdg=2 bus=x_520.1.2.3 kv=0.38 kVA=100.0 %imag=0.5 %loadloss=1.5 %noloadloss=0.25 XHL=2.0 conns=[delta, wye, ] ppm_antifloat=0
New Transformer.idseta_523 phases=3 wdg=1 bus=889.1.2.3 kv=13.2 kVA=75.0 wdg=2 bus=x_523.1.2.3 kv=0.38 kVA=75.0 %imag=0.5 %loadloss=1.5 %noloadloss=0.25 XHL=2.0 conns=[delta, wye, ] ppm_antifloat=0
New Transformer.idseta_524 phases=3 wdg=1 bus=4.1.2.3 kv=13.2 kVA=63.0 wdg=2 bus=x_524.1.2.3 kv=0.38 kVA=63.0 %imag=0.5 %loadloss=1.5 %noloadloss=0.25 XHL=2.0 conns=[delta, wye, ] ppm_antifloat=0
New Transformer.idseta_527 phases=3 wdg=1 bus=1271.1.2.3 kv=13.2 kVA=100.0 wdg=2 bus=x_527.1.2.3 kv=0.38 kVA=100.0 %imag=0.5 %loadloss=1.5 %noloadloss=0.25 XHL=2.0 conns=[delta, wye, ] ppm_antifloat=0
New Transformer.idseta_833 phases=3 wdg=1 bus=888.1.2.3 kv=13.2 kVA=80.0 wdg=2 bus=x_833.1.2.3 kv=0.38 kVA=80.0 %imag=0.5 %loadloss=1.5 %noloadloss=0.25 XHL=2.0 conns=[delta, wye, ] ppm_antifloat=0
New Transformer.idseta_835 phases=3 wdg=1 bus=778.1.2.3 kv=13.2 kVA=160.0 wdg=2 bus=x_835.1.2.3 kv=0.38 kVA=160.0 %imag=0.5 %loadloss=1.5 %noloadloss=0.25 XHL=2.0 conns=[delta, wye, ] ppm_antifloat=0
New Transformer.idseta_840 phases=3 wdg=1 bus=894.1.2.3 kv=13.2 kVA=160.0 wdg=2 bus=x_840.1.2.3 kv=0.38 kVA=160.0 %imag=0.5 %loadloss=1.5 %noloadloss=0.25 XHL=2.0 conns=[delta, wye, ] ppm_antifloat=0
New Transformer.idseta_859 phases=3 wdg=1 bus=698.1.2.3 kv=13.2 kVA=63.0 wdg=2 bus=x_859.1.2.3 kv=0.38 kVA=63.0 %imag=0.5 %loadloss=1.5 %noloadloss=0.25 XHL=2.0 conns=[delta, wye, ] ppm_antifloat=0
New Transformer.idseta_956 phases=3 wdg=1 bus=1763.1.2.3 kv=13.2 kVA=63.0 wdg=2 bus=x_956.1.2.3 kv=0.38 kVA=63.0 %imag=0.5 %loadloss=1.5 %noloadloss=0.25 XHL=2.0 conns=[delta, wye, ] ppm_antifloat=0
New Transformer.idseta_957 phases=3 wdg=1 bus=267.1.2.3 kv=13.2 kVA=40.0 wdg=2 bus=x_957.1.2.3 kv=0.38 kVA=40.0 %imag=0.5 %loadloss=1.5 %noloadloss=0.25 XHL=2.0 conns=[delta, wye, ] ppm_antifloat=0
New Transformer.idseta_958 phases=3 wdg=1 bus=325.1.2.3 kv=13.2 kVA=80.0 wdg=2 bus=x_958.1.2.3 kv=0.38 kVA=80.0 %imag=0.5 %loadloss=1.5 %noloadloss=0.25 XHL=2.0 conns=[delta, wye, ] ppm_antifloat=0
New Transformer.idseta_1067 phases=3 wdg=1 bus=365.1.2.3 kv=13.2 kVA=100.0 wdg=2 bus=x_1067.1.2.3 kv=0.38 kVA=100.0 %imag=0.5 %loadloss=1.5 %noloadloss=0.25 XHL=2.0 conns=[delta, wye, ] ppm_antifloat=0
New Transformer.idseta_1106 phases=3 wdg=1 bus=832.1.2.3 kv=13.2 kVA=100.0 wdg=2 bus=x_1106.1.2.3 kv=0.38 kVA=100.0 %imag=0.5 %loadloss=1.5 %noloadloss=0.25 XHL=2.0 conns=[delta, wye, ] ppm_antifloat=0
New Transformer.idseta_1231 phases=3 wdg=1 bus=846.1.2.3 kv=13.2 kVA=5.0 wdg=2 bus=x_1231.1.2.3 kv=0.38 kVA=5.0 %imag=0.5 %loadloss=1.5 %noloadloss=0.25 XHL=2.0 conns=[delta, wye, ] ppm_antifloat=0
New Transformer.idseta_1355 phases=3 wdg=1 bus=821.1.2.3 kv=13.2 kVA=80.0 wdg=2 bus=x_1355.1.2.3 kv=0.38 kVA=80.0 %imag=0.5 %loadloss=1.5 %noloadloss=0.25 XHL=2.0 conns=[delta, wye, ] ppm_antifloat=0
New Transformer.idseta_1357 phases=3 wdg=1 bus=1289.1.2.3 kv=13.2 kVA=5.0 wdg=2 bus=x_1357.1.2.3 kv=0.38 kVA=5.0 %imag=0.5 %loadloss=1.5 %noloadloss=0.25 XHL=2.0 conns=[delta, wye, ] ppm_antifloat=0
New Transformer.idseta_1374 phases=3 wdg=1 bus=15.1.2.3 kv=13.2 kVA=100.0 wdg=2 bus=x_1374.1.2.3 kv=0.38 kVA=100.0 %imag=0.5 %loadloss=1.5 %noloadloss=0.25 XHL=2.0 conns=[delta, wye, ] ppm_antifloat=0
New Transformer.idseta_1382 phases=3 wdg=1 bus=287.1.2.3 kv=13.2 kVA=40.0 wdg=2 bus=x_1382.1.2.3 kv=0.38 kVA=40.0 %imag=0.5 %loadloss=1.5 %noloadloss=0.25 XHL=2.0 conns=[delta, wye, ] ppm_antifloat=0
New Transformer.idseta_1488 phases=3 wdg=1 bus=1093.1.2.3 kv=13.2 kVA=80.0 wdg=2 bus=x_1488.1.2.3 kv=0.38 kVA=80.0 %imag=0.5 %loadloss=1.5 %noloadloss=0.25 XHL=2.0 conns=[delta, wye, ] ppm_antifloat=0
New Transformer.idseta_1649 phases=3 wdg=1 bus=1347.1.2.3 kv=13.2 kVA=5.0 wdg=2 bus=x_1649.1.2.3 kv=0.38 kVA=5.0 %imag=0.5 %loadloss=1.5 %noloadloss=0.25 XHL=2.0 conns=[delta, wye, ] ppm_antifloat=0
New Transformer.idseta_1759 phases=3 wdg=1 bus=367.1.2.3 kv=13.2 kVA=63.0 wdg=2 bus=x_1759.1.2.3 kv=0.38 kVA=63.0 %imag=0.5 %loadloss=1.5 %noloadloss=0.25 XHL=2.0 conns=[delta, wye, ] ppm_antifloat=0
New Transformer.idseta_1874 phases=3 wdg=1 bus=714.1.2.3 kv=13.2 kVA=40.0 wdg=2 bus=x_1874.1.2.3 kv=0.38 kVA=40.0 %imag=0.5 %loadloss=1.5 %noloadloss=0.25 XHL=2.0 conns=[delta, wye, ] ppm_antifloat=0
New Transformer.idseta_1945 phases=3 wdg=1 bus=717.1.2.3 kv=13.2 kVA=200.0 wdg=2 bus=x_1945.1.2.3 kv=0.38 kVA=200.0 %imag=0.5 %loadloss=1.5 %noloadloss=0.25 XHL=2.0 conns=[delta, wye, ] ppm_antifloat=0
New Transformer.idseta_1951 phases=3 wdg=1 bus=1725.1.2.3 kv=13.2 kVA=40.0 wdg=2 bus=x_1951.1.2.3 kv=0.38 kVA=40.0 %imag=0.5 %loadloss=1.5 %noloadloss=0.25 XHL=2.0 conns=[delta, wye, ] ppm_antifloat=0
New Transformer.idseta_1973 phases=3 wdg=1 bus=386.1.2.3 kv=13.2 kVA=40.0 wdg=2 bus=x_1973.1.2.3 kv=0.38 kVA=40.0 %imag=0.5 %loadloss=1.5 %noloadloss=0.25 XHL=2.0 conns=[delta, wye, ] ppm_antifloat=0
New Transformer.idseta_22 phases=3 wdg=1 bus=77.1.2.3 kv=13.2 kVA=100.0 wdg=2 bus=x_22.1.2.3 kv=0.38 kVA=100.0 %imag=0.5 %loadloss=1.5 %noloadloss=0.25 XHL=2.0 conns=[delta, wye, ] ppm_antifloat=0
New Transformer.idseta_58 phases=3 wdg=1 bus=64.1.2.3 kv=13.2 kVA=160.0 wdg=2 bus=x_58.1.2.3 kv=0.38 kVA=160.0 %imag=0.5 %loadloss=1.5 %noloadloss=0.25 XHL=2.0 conns=[delta, wye, ] ppm_antifloat=0
New Transformer.idseta_560 phases=3 wdg=1 bus=876.1.2.3 kv=13.2 kVA=100.0 wdg=2 bus=x_560.1.2.3 kv=0.38 kVA=100.0 %imag=0.5 %loadloss=1.5 %noloadloss=0.25 XHL=2.0 conns=[delta, wye, ] ppm_antifloat=0
New Transformer.idseta_2109 phases=3 wdg=1 bus=650.1.2.3 kv=13.2 kVA=40.0 wdg=2 bus=x_2109.1.2.3 kv=0.38 kVA=40.0 %imag=0.5 %loadloss=1.5 %noloadloss=0.25 XHL=2.0 conns=[delta, wye, ] ppm_antifloat=0
New Transformer.idseta_2228 phases=3 wdg=1 bus=1720.1.2.3 kv=13.2 kVA=5.0 wdg=2 bus=x_2228.1.2.3 kv=0.38 kVA=5.0 %imag=0.5 %loadloss=1.5 %noloadloss=0.25 XHL=2.0 conns=[delta, wye, ] ppm_antifloat=0
New Transformer.idseta_2242 phases=3 wdg=1 bus=154.1.2.3 kv=13.2 kVA=50.0 wdg=2 bus=x_2242.1.2.3 kv=0.38 kVA=50.0 %imag=0.5 %loadloss=1.5 %noloadloss=0.25 XHL=2.0 conns=[delta, wye, ] ppm_antifloat=0
New Transformer.idseta_2258 phases=3 wdg=1 bus=870.1.2.3 kv=13.2 kVA=80.0 wdg=2 bus=x_2258.1.2.3 kv=0.38 kVA=80.0 %imag=0.5 %loadloss=1.5 %noloadloss=0.25 XHL=2.0 conns=[delta, wye, ] ppm_antifloat=0
New Transformer.idseta_2792 phases=3 wdg=1 bus=332.1.2.3 kv=13.2 kVA=200.0 wdg=2 bus=x_2792.1.2.3 kv=0.38 kVA=200.0 %imag=0.5 %loadloss=1.5 %noloadloss=0.25 XHL=2.0 conns=[delta, wye, ] ppm_antifloat=0
New Transformer.idseta_2794 phases=3 wdg=1 bus=1781.1.2.3 kv=13.2 kVA=63.0 wdg=2 bus=x_2794.1.2.3 kv=0.38 kVA=63.0 %imag=0.5 %loadloss=1.5 %noloadloss=0.25 XHL=2.0 conns=[delta, wye, ] ppm_antifloat=0
New Transformer.idseta_2795 phases=3 wdg=1 bus=241.1.2.3 kv=13.2 kVA=40.0 wdg=2 bus=x_2795.1.2.3 kv=0.38 kVA=40.0 %imag=0.5 %loadloss=1.5 %noloadloss=0.25 XHL=2.0 conns=[delta, wye, ] ppm_antifloat=0
...
